&HEAD CHID='test'/

&MESH IJK=20,20,20, XB=0,1,0,1,0,1/

&TIME T_END=1/

&DUMP DT_SLCF=0.1/

&VENT MB='XMIN', SURF_ID='OPEN'/
&VENT MB='XMAX', SURF_ID='OPEN'/
&VENT MB='YMIN', SURF_ID='OPEN'/
&VENT MB='YMAX', SURF_ID='OPEN'/
&VENT MB='ZMAX', SURF_ID='OPEN'/

&INIT XB=0.25,0.75,0.25,0.75,0.25,0.75, TEMPERATURE=100/

&SLCF PBY=0.5, QUANTITY='TEMPERATURE'/
&SLCF PBY=0.5, QUANTITY='TEMPERATURE', CELL_CENTERED=T/

&TAIL/
